data/projects/lehighauto_3mg/circuit_control.dss
clear
set defaultbasefrequency=60
new object=circuit.lehigh basekv=115 pu=1.0001 phases=3 bus1=sourcebus angle=30 mvasc3=20000 mvasc1=21000
edit object=vsource.source basekv=115 bus1=sourcebus.1.2.3 pu=1.00 r1=0 x1=0.0001 r0=0 x0=0.0001
new object=vsource.secondsource basekv=4.16 bus1=680.1.2.3 pu=1.00 r1=0 x1=0.0001 r0=0 x0=0.0001
new object=transformer.sub phases=3 windings=2 xhl=0.008 buses=[sourcebus.1.2.3,650.1.2.3] conns=[delta,wye] kvs=[115,4.16] kvas=[5000,5000] %rs=[0.0005,0.0005]
new object=transformer.reg1 phases=1 bank=reg1 xhl=0.01 kvas=[1666,1666] buses=[650.1,rg60.1] kvs=[2.4,2.4] %loadloss=0.01
new object=regcontrol.reg1 transformer=reg1 winding=2 vreg=121 band=2 ptratio=20 ctprim=700 r=3 x=9
new object=transformer.reg2 phases=1 bank=reg1 xhl=0.01 kvas=[1666,1666] buses=[650.2,rg60.2] kvs=[2.4,2.4] %loadloss=0.01
new object=regcontrol.reg2 transformer=reg2 winding=2 vreg=121 band=2 ptratio=20 ctprim=700 r=3 x=9
new object=transformer.reg3 phases=1 bank=reg1 xhl=0.01 kvas=[1666,1666] buses=[650.3,rg60.3] kvs=[2.4,2.4] %loadloss=0.01
new object=regcontrol.reg3 transformer=reg3 winding=2 vreg=121 band=2 ptratio=20 ctprim=700 r=3 x=9
new object=transformer.xfm1 phases=3 windings=2 xhl=2 buses=[633.1.2.3,634.1.2.3] conns=[wye,wye] kvs=[4.16,0.480] kvas=[500,500] %rs=[0.55,0.55] xht=1 xlt=1
new object=linecode.mtx601 nphases=3 basefreq=60 rmatrix=[0.3465|0.1560,0.3375|0.1580,0.1535,0.3414] xmatrix=[1.0179|0.5017,1.0478|0.4236,0.3849,1.0348] units=mi
new object=linecode.mtx602 nphases=3 basefreq=60 rmatrix=[0.7526|0.1580,0.7475|0.1560,0.1535,0.7436] xmatrix=[1.1814|0.4236,1.1983|0.5017,0.3849,1.2112] units=mi
new object=linecode.mtx603 nphases=2 basefreq=60 rmatrix=[1.3238|0.2066,1.3294] xmatrix=[1.3569|0.4591,1.3471] units=mi
new object=linecode.mtx604 nphases=2 basefreq=60 rmatrix=[1.3238|0.2066,1.3294] xmatrix=[1.3569|0.4591,1.3471] units=mi
new object=linecode.mtx605 nphases=1 basefreq=60 rmatrix=[1.3292] xmatrix=[1.3475] units=mi
new object=linecode.mtx606 nphases=3 units=mi rmatrix=[0.791721|0.318476,0.781649|0.28345,0.318476,0.791721] xmatrix=[0.438352|0.0276838,0.396697|-0.0184204,0.0276838,0.438352] cmatrix=[383.948|0,383.948|0,0,383.948]
new object=linecode.mtx607 nphases=1 basefreq=60 rmatrix=[1.3425] xmatrix=[0.5124] cmatrix=[236] units=mi
new object=loadshape.solar_633_shape npts=8760 interval=1 useactual=yes mult=[0.0,0.0,0.0,0.0,0.0,0.0,0.0,0.0,23.484001559482593,54.66999086328619,75.29344810291924,86.6438315932631,91.10506405715456,87.73313599532487,77.70289927596636,60.33350470038317,32.68564996403423,2.183497230759553,0.0,0.0,0.0,0.0,0.0,0.0,0.0,0.0,0.0,0.0,0.0,0.0,0.0,0.0,8.675599382663423,29.053548973464796,49.815783213709544,61.46816283845699,71.29770248648077,83.8642178921656,50.99090666115938,55.38424431066152,28.113341583801915,0.9947948204318708,0.0,0.0,0.0,0.0,0.0,0.0,0.0,0.0,0.0,0.0,0.0,0.0,0.0,0.0,11.01145257691254,48.2585477508768,68.59331623972659,80.73345221104668,85.63654412698361,82.55249007816452,41.42642836851137,46.60300059680837,22.674966951219815,0.9030010313775514,0.0,0.0,0.0,0.0,0.0,0.0,0.0,0.0,0.0,0.0,0.0,0.0,0.0,0.0,16.371612383318176,48.30118569431328,69.91074721813636,60.43860587305779,49.28701839924576,32.25356736526079,75.57779158558158,35.041600023342575,19.054272289467782,0.7316345198589844,0.0,0.0,0.0,0.0,0.0,0.0,0.0,0.0,0.0,0.0,0.0,0.0,0.0,0.0,10.699136430721808,36.35061204476808,45.94387773871714,60.53990493612662,58.68284597295077,48.57575232370356,49.377182712754745,37.688411467494646,18.242521888629437,1.4681574663539976,0.0,0.0,0.0,0.0,0.0,0.0,0.0,0.0,0.0,0.0,0.0,0.0,0.0,0.0,8.811389011442001,11.611914315371417,30.935321649078347,18.735981399610797,39.40452079599833,41.854708857679014,34.67116591603462,18.639299183920446,12.667271310238537,2.2071246261670256,0.0,0.0,0.0,0.0,0.0,0.0,0.0,0.0,0.0,0.0,0.0,0.0,0.0,0.0,25.629749273441703,59.9079400037911,83.93238428581245,98.00426351613662,102.98448394121978,99.80374767671034,89.0750091069148,70.12556641086408,39.89933820326747,4.138053147398421,0.0,0.0,0.0,0.0,0.0,0.0,0.0,0.0,0.0,0.0,0.0,0.0,0.0,0.0,7.131942882708534,42.24741246410666,57.54764467636184,61.85081801235502,39.96343090805095,40.68936226350124,44.97216715517764,27.26302692839045,18.14393861813619,0.9410221274355536,0.0,0.0,0.0,0.0,0.0,0.0,0.0,0.0,0.0,0.0,0.0,0.0,0.0,0.0,0.6284344019872643,1.254424590656514,4.440592440317095,16.67496641400952,21.738833250420292,15.524828258254956,6.638754950984735,3.3192416858635885,7.589553931692346,0.154528597550023,0.0,0.0,0.0,0.0,0.0,0.0,0.0,0.0,0.0,0.0,0.0,0.0,0.0,0.0,0.4217625869862668,11.052461044803673,12.16593600078802,12.5312101022024,14.403477503801447,22.87186191294876,33.878969221740384,25.19304982728979,9.599512016872875,0.4068257278206231,0.0,0.0,0.0,0.0,0.0,0.0,0.0,0.0,0.0,0.0,0.0,0.0,0.0,0.0,22.821348171043127,56.12701358008035,79.52275188085689,93.49686257846044,98.84724553159404,96.1686593143078,85.8616833314985,68.14846941584796,39.38849761980246,4.7917444203385005,0.0,0.0,0.0,0.0,0.0,0.0,0.0,0.0,0.0,0.0,0.0,0.0,0.0,0.0,23.73086710460205,56.463500280193664,78.88997221074868,92.44259190062355,85.70552525840313,80.89015344265715,85.20256047340727,67.18028936265668,39.02349509764563,5.283574455774515,0.0,0.0,0.0,0.0,0.0,0.0,0.0,0.0,0.0,0.0,0.0,0.0,0.0,0.0,10.211923242664266,33.220389522164275,62.94799821288594,66.46848012859938,72.70258198582395,79.47033708414833,67.31662214995039,54.73761409841792,35.3229561341718,4.953605657842568,0.0,0.0,0.0,0.0,0.0,0.0,0.0,0.0,0.0,0.0,0.0,0.0,0.0,0.0,10.592405782501846,43.47549386678013,45.4072371257842,86.37089443941818,92.46784877157636,90.52062549489156,80.98249039022659,63.55443469501107,34.74992390072619,5.197483831128896,0.0,0.0,0.0,0.0,0.0,0.0,0.0,0.0,0.0,0.0,0.0,0.0,0.0,0.0,12.297108782188127,31.10750289836959,50.88607706774231,54.92201641429923,59.68470185407912,57.42624874823379,46.08537053190442,29.69583391758747,27.140273103974614,4.624180018425735,0.0,0.0,0.0,0.0,0.0,0.0,0.0,0.0,0.0,0.0,0.0,0.0,0.0,0.0,9.467796076957654,44.900741810440095,78.0442744027157,91.07410402179303,96.4543606932579,94.22225077539564,84.4100921998555,50.01946765687742,40.226319629366294,7.5289917572571,0.0,0.0,0.0,0.0,0.0,0.0,0.0,0.0,0.0,0.0,0.0,0.0,0.0,0.0,1.248449846990257,29.627395944683073,27.77060856076478,28.441952485446073,41.41149150934573,66.74005938615655,33.7564869765821,24.605895472451213,3.205178397689582,0.0505137419056314,0.0,0.0,0.0,0.0,0.0,0.0,0.0,0.0,0.0,0.0,0.0,0.0,0.0,0.0,16.169014257180535,17.963609991118236,9.500385587864512,11.755851321876712,93.54330263150273,91.44318023281322,45.18780108567801,64.90852887319107,38.27963951119658,7.616168698932947,0.0,0.0,0.0,0.0,0.0,0.0,0.0,0.0,0.0,0.0,0.0,0.0,0.0,0.0,0.0,8.2630704904341,31.111576587232943,82.64727123905197,89.48319273102318,33.63373315216627,22.145658978240917,25.70633462407282,9.620966778219891,7.946952234637567,0.0,0.0,0.0,0.0,0.0,0.0,0.0,0.0,0.0,0.0,0.0,0.0,0.0,0.0,25.118637110719128,59.420726815733566,82.27819502803179,95.38841210734606,100.15381333970151,97.9681434748815,88.96094581874078,71.66922291081897,43.31797789739698,9.73285743233344,0.0,0.0,0.0,0.0,0.0,0.0,0.0,0.0,0.0,0.0,0.0,0.0,0.0,0.0,7.343774703603119,19.649845601290632,51.411311351857854,90.81610372711371,97.15965202513384,95.99756438204676,87.12615635468462,69.92215354695377,42.85303420845912,9.949577679864053,0.0,0.0,0.0,0.0,0.0,0.0,0.0,0.0,0.0,0.0,0.0,0.0,0.0,0.0,24.487215336898736,56.98085876584006,79.80003430282272,94.31024245484414,100.40366625665408,98.27910172478444,88.53891165249696,70.67551440741732,42.82098785606738,10.093786265626903,0.0,0.0,0.0,0.0,0.0,0.0,0.0,0.0,0.0,0.0,0.0,0.0,0.0,0.0,24.21210554899334,57.72580066931934,81.94551043752426,96.95107915532996,103.23650949223284,101.03318697567158,91.3608917177734,73.62730935780608,45.8452944682239,11.55352477499663,0.0,0.0,0.0,0.0,0.0,0.0,0.0,0.0,0.0,0.0,0.0,0.0,0.0,0.0,6.628434939197563,22.792560769742067,76.03187210421716,63.10334154820863,95.5060059258683,78.9000206432783,83.24447402642016,57.39718976767518,35.726794490159286,7.651474002415379,0.0,0.0,0.0,0.0,0.0,0.0,0.0,0.0,0.0,0.0,0.0,0.0,0.0,0.0,6.8818183864983915,40.856926665414015,44.39478965361111,67.24519680521286,96.08990132961618,95.06659068714082,71.38542258667174,66.77536468963896,38.88498967629149,8.825239553577417,0.0,0.0,0.0,0.0,0.0,0.0,0.0,0.0,0.0,0.0,0.0,0.0,0.0,0.0,13.707691445940007,27.36242493665637,43.754134185033784,33.74236485518914,17.919885730651533,5.352555587194034,15.503645076165498,29.712128673040905,12.137420178744518,3.9976466712413705,0.0,0.0,0.0,0.0,0.0,0.0,0.0,0.0,0.0,0.0,0.0,0.0,0.0,0.0,20.380665383376947,36.7536356629829,25.20934458274322,74.51917563962378,101.83787631581346,101.81642155446642,93.290462342717,75.79695604643021,47.32322878784995,13.119993932586318,0.0,0.0,0.0,0.0,0.0,0.0,0.0,0.0,0.0,0.0,0.0,0.0,0.0,0.0,28.48105989853431,64.85285512539186,89.52881804629281,104.13380735920168,109.45458817326151,106.90174315222424,96.20043408744196,78.21455459720404,50.133802524308976,14.587065081910088,0.0,0.0,0.0,0.0,0.0,0.0,0.0,0.0,0.0,0.0,0.0,0.0,0.0,0.0,14.494728134340653,60.72213461794747,67.25741787180293,75.16146058374646,75.56041051309792,79.09582928797703,67.83561011114212,49.074643419836065,29.613273823290097,12.62300389125672,0.0,0.0,0.0,0.0,0.0,0.0,0.0,0.0,0.0,0.0,0.0,0.0,0.0,0.0,2.874123282727407,13.870367421216748,17.05246158201397,47.87643573549388,51.07862676135034,26.962388690274675,21.283394835496946,11.86312512861179,25.143622402414387,5.819400330934789,0.0,0.0,0.0,0.0,0.0,0.0,0.0,0.0,0.0,0.0,0.0,0.0,0.0,0.0,4.563617843990488,29.603225390760485,58.95252417570502,55.43475805256716,47.41257836358625,57.769253350528494,53.54891168809024,45.11719047871315,13.891279024048648,1.087946505773976,0.0,0.0,0.0,0.0,0.0,0.0,0.0,0.0,0.0,0.0,0.0,0.0,0.0,0.0,23.100260068554327,53.97420480542475,16.85203608993679,24.812838866709768,37.08822130829333,50.26932057383,39.04250564567464,68.69814583314366,43.998827096092775,13.14552238279669,0.0,0.0,0.0,0.0,0.0,0.0,0.0,0.0,0.0,0.0,0.0,0.0,0.0,0.0,7.121351291663806,20.581362454711687,23.160550663732018,31.750059421749825,69.7317764874062,61.23704889027584,57.03218724551836,29.676823369558473,18.40356838836083,12.72511769209821,0.0,0.0,0.0,0.0,0.0,0.0,0.0,0.0,0.0,0.0,0.0,0.0,0.0,0.0,24.512743787109113,55.26855154694218,10.924818793751806,18.79953094587917,19.504279119239992,21.587835183218512,23.92042942637695,17.083150038117928,4.595121037867119,3.909383412535294,0.0,0.0,0.0,0.0,0.0,0.0,0.0,0.0,0.0,0.0,0.0,0.0,0.0,0.0,24.53827223731948,14.174536189680763,36.35577205066166,57.5289057075904,97.15286254369492,96.01874756413623,86.91188032047204,69.1905190270948,43.50020757921784,13.458653266760097,0.0,0.0,0.0,0.0,0.0,0.0,0.0,0.0,0.0,0.0,0.0,0.0,0.0,0.0,6.606437019335433,2.496356535465399,75.49984833866269,89.74282250124786,96.08121079337438,47.1390980512262,87.27199441599284,71.18554025310966,46.498442582648856,14.91187387394845,0.0,0.0,0.0,0.0,0.0,0.0,0.0,0.0,0.0,0.0,0.0,0.0,0.0,0.0,9.793419606768683,37.91708120235777,52.16032694420049,51.191060573979,18.875573137995175,18.404111546875946,29.66677493702886,0.5274069181760015,6.765854043521485,1.2389445729757562,0.0,0.0,0.0,0.0,0.0,0.0,0.0,0.0,0.0,0.0,0.0,0.0,0.0,0.0,25.568100781976227,58.35858033942752,81.34178974797472,95.75857463539649,102.41335276257708,101.03345855492915,91.55887299653256,75.05119940517825,48.77916518761387,16.15597845281779,0.0,0.0,0.0,0.0,0.0,0.0,0.0,0.0,0.0,0.0,0.0,0.0,0.0,0.0,2.0262528406339584,13.336171021601816,54.11895654970273,64.43272201395092,79.25796210473864,50.24569317842253,65.73657402948284,73.75196423702481,49.03119073862692,16.767846520094068,0.0,0.0,0.0,0.0,0.0,0.0,0.0,0.0,0.0,0.0,0.0,0.0,0.0,0.0,28.233651194899736,28.94790464227506,38.0944224575426,95.62441448216325,101.67791613311228,63.118549986631834,90.53121708593628,74.68592530376387,50.11995198217357,17.43294412185155,0.0,0.0,0.0,0.0,0.0,0.0,0.0,0.0,0.0,0.0,0.0,0.0,0.0,0.2544697643310573,27.50391772984365,59.13258122346543,80.65632370190045,94.0430084654079,99.08895107081987,98.31386386975176,88.19237651985402,70.92835469620304,45.43249399673701,15.10876883567739,0.0,0.0,0.0,0.0,0.0,0.0,0.0,0.0,0.0,0.0,0.0,0.0,0.0,0.2463223866043426,9.450143425216435,20.787762690455125,27.637534724561775,42.48531589372673,97.37338490083133,95.88594530719077,87.14869743306188,71.39818681177692,25.645772449637576,9.595438328009518,0.0,0.0,0.0,0.0,0.0,0.0,0.0,0.0,0.0,0.0,0.0,0.0,0.0,0.0,0.0,1.1520392105574655,5.366406129329448,8.18947251163611,17.854978288095374,21.5967972987179,13.954285411801909,11.898158852836662,9.286924291424585,3.7673474608329,0.0,0.0,0.0,0.0,0.0,0.0,0.0,0.0,0.0,0.0,0.0,0.0,0.0,0.2851582204350162,0.3239940542656898,15.89879289591116,30.47825375860965,77.62441287053234,111.01969943456342,110.39235134960636,100.58100751183896,82.91178943591265,55.81768480572275,20.39641698031526,0.0,0.0,0.0,0.0,0.0,0.0,0.0,0.0,0.0,0.0,0.0,0.0,0.0,0.9586747791767688,32.19056097750753,65.42615893809501,87.29127654327938,101.63066134229732,108.31151107820342,106.75889246274916,97.53280192501737,61.06975606762063,53.01335739218754,19.143350285946536,0.0,0.0,0.0,0.0,0.0,0.0,0.0,0.0,0.0,0.0,0.0,0.0,0.0,1.10858652934832,33.1872568527423,67.88313648121462,91.0553650530216,105.50691208541063,111.70136337103187,109.51515034769676,99.58376847808904,81.6063079448354,55.51270129948606,20.99416292619857,0.0,0.0,0.0,0.0,0.0,0.0,0.0,0.0,0.0,0.0,0.0,0.0,0.0,1.2791383030942156,32.92789866177522,65.4907948013936,86.96782564752881,100.22116499557568,105.80646400649618,103.89264497849092,94.94954002713368,78.47554226371646,53.0896711635611,20.137601947863292,0.0,0.0,0.0,0.0,0.0,0.0,0.0,0.0,0.0,0.0,0.0,0.0,0.0,1.1240665470290785,30.89594265673255,63.07401098839246,84.61730717337159,98.41543451207814,104.28915069452437,102.192015667668,93.79234081068265,76.36944512136071,50.64111257742575,17.075545818906328,0.0,0.0,0.0,0.0,0.0,0.0,0.0,0.0,0.0,0.0,0.0,0.0,0.0,0.9046305069228944,27.763819079325852,57.73503436407629,48.25963406790703,54.08446598399296,69.2366875008795,96.9260938636347,77.63744867489507,56.55610880702066,42.28651987719489,13.677274569093608,0.0,0.0,0.0,0.0,0.0,0.0,0.0,0.0,0.0,0.0,0.0,0.0,0.0,1.2166750738560694,30.058392226426285,61.377998524948005,82.76214926499865,95.94623590236846,101.04106277414074,101.31997467165196,91.6221509635434,57.17069266687251,49.927402288565546,19.027385942969627,0.0,0.0,0.0,0.0,0.0,0.0,0.0,0.0,0.0,0.0,0.0,0.0,0.0,1.5738017975437324,31.613998213713685,62.54280196061066,84.460062783246,97.70335369876328,76.14892276422428,61.8065505933732,52.59403901851928,75.5079957163894,26.28235422935155,19.141992389658743,0.0,0.0,0.0,0.0,0.0,0.0,0.0,0.0,0.0,0.0,0.0,0.0,0.0,0.0,0.609152274700706,2.619381939138792,6.095053277355305,28.91368565582286,49.43910278347777,33.124522044246596,30.11325123645283,73.0705718798139,21.57507095811333,18.82234360351397,0.0,0.0,0.0,0.0,0.0,0.0,0.0,0.0,0.0,0.0,0.0,0.0,0.0,1.9279411493982668,33.19920634007482,65.48020321034889,86.92029927745631,100.1285564687487,104.9023766580884,102.54452554397716,93.99140840647205,77.91065740799758,53.80229513539108,14.288056319339656,0.0,0.0,0.0,0.0,0.0,0.0,0.0,0.0,0.0,0.0,0.0,0.0,0.0,0.0,0.0,8.449645440375866,26.654689391462416,40.07830893399763,17.936180486104963,11.196398051308964,15.41728287226232,17.781923467812497,7.695741421397195,6.749287708810499,0.0,0.0,0.0,0.0,0.0,0.0,0.0,0.0,0.0,0.0,0.0,0.0,0.0,2.1386866532626216,3.051736117169788,9.476215033941925,12.016024250616468,51.358353396634215,66.51980860827769,74.67859266380984,34.53510470799848,31.3755516255785,49.79052634275673,11.87181566485362,0.0,0.0,0.0,0.0,0.0,0.0,0.0,0.0,0.0,0.0,0.0,0.0,0.0,2.652514608560765,32.23374207945912,53.06414271335072,83.30802357268855,96.25447835969582,101.0769112361383,99.44118936787152,91.68216997946352,19.66532561897139,51.7774001910449,20.607162484179614,0.0,0.0,0.0,0.0,0.0,0.0,0.0,0.0,0.0,0.0,0.0,0.0,0.0,0.0,2.68075885134671,12.12302647809399,15.570453573524558,21.459378194393977,23.363963527642326,14.866248558678846,29.671391784407326,18.589328600529928,17.532613709375028,8.56017819820163,0.0,0.0,0.0,0.0,0.0,0.0,0.0,0.0,0.0,0.0,0.0,0.0,0.0,3.864029676523249,28.468567252686675,54.7346267265848,96.7669484187062,110.96049515641594,101.289286215548,90.59911190032555,78.29249784412293,62.22179527817809,37.29109101368852,9.5340614158016,0.0,0.0,0.0,0.0,0.0,0.0,0.0,0.0,0.0,0.0,0.0,0.0,0.0,5.817770855389446,41.67220759660059,73.98253502669084,94.1076443287065,105.62749327576604,110.56806312924584,108.55375977594444,99.27416812447387,83.28140880544794,59.19395813567334,25.017066468392752,0.0,0.0,0.0,0.0,0.0,0.0,0.0,0.0,0.0,0.0,0.0,0.0,0.0,0.8158240897017036,8.627258274818248,22.270585436717212,33.5948973183356,25.96080438840388,30.995612244256037,80.65007737897662,45.4547634958567,67.75006264501162,53.695292907913554,22.22061485332669,0.0798443017218045,0.0,0.0,0.0,0.0,0.0,0.0,0.0,0.0,0.0,0.0,0.0,0.0,6.604264385274976,40.19128590514142,72.61078819676963,93.73313653253516,105.7336807654709,111.10714795549684,108.96737498520396,96.7009546591198,78.33350631201408,53.64152021491723,19.914363798151307,0.0347621449673162,0.0,0.0,0.0,0.0,0.0,0.0,0.0,0.0,0.0,0.0,0.0,0.0,6.860906783666491,43.36794848078749,75.8857624636514,97.26909846592936,109.6384473306277,114.18088199252873,112.01395109648016,101.32622099457576,83.49840063223611,58.10411057509646,24.828862042905644,0.2107455038643548,0.0,0.0,0.0,0.0,0.0,0.0,0.0,0.0,0.0,0.0,0.0,0.0,7.504278044819399,42.173271326793554,74.57131885707476,96.03205494775652,108.86852013545318,114.01277443210084,111.06722580463592,101.76672255033348,85.24465525832863,60.33323312112562,26.367901695482058,0.47689317627037,0.0,0.0,0.0,0.0,0.0,0.0,0.0,0.0,0.0,0.0,0.0,0.0,4.523424113872029,38.467029198911014,69.03245989919651,52.35314821706608,52.32680502908303,83.35283415018546,98.9583214479349,85.16100884700104,74.64844736622099,57.16037265508534,24.879104205553713,0.3734214791410927,0.0,0.0,0.0,0.0,0.0,0.0,0.0,0.0,0.0,0.0,0.0,0.0,2.9382159875108957,25.115378159628445,26.012404447339737,22.746120716699792,24.364461512482897,16.016386714433413,37.71774202731081,12.440774209435864,19.018966985985355,8.167203012516422,1.070565433290318,0.0,0.0,0.0,0.0,0.0,0.0,0.0,0.0,0.0,0.0,0.0,0.0,0.0,7.548002305286101,31.571088691019657,72.42991641123656,96.57820083470396,102.39216958048762,113.94813856880226,97.13439515418102,89.7944225601837,70.5057773714441,49.40569853479824,11.798217686055628,0.0,0.0,0.0,0.0,0.0,0.0,0.0,0.0,0.0,0.0,0.0,0.0,0.0,6.155615451790551,45.28366856359569,77.67329713689261,99.73313706974548,113.51931492111947,119.14236344884048,116.93713987747634,106.80913462539723,89.52637383297478,64.08835951536844,26.5990156436632,0.3017245551460029,0.0,0.0,0.0,0.0,0.0,0.0,0.0,0.0,0.0,0.0,0.0,0.0,6.963835322280654,45.16879053764901,75.72634543946535,94.88408942606242,106.22388132536156,110.01784355343509,108.5347492279154,99.68968438853634,82.2572834251999,59.91418632671492,26.80541587940664,0.6612954921516805,0.0,0.0,0.0,0.0,0.0,0.0,0.0,0.0,0.0,0.0,0.0,0.0,6.601820171956962,37.701990430372504,52.15924062717027,70.6255438240268,72.58580290507437,74.53438407804698,70.7890345370762,55.485543373730344,55.70715204789698,48.581183908854705,19.467072760954665,0.4315394402583246,0.0,0.0,0.0,0.0,0.0,0.0,0.0,0.0,0.0,0.0,0.0,0.0,5.356357696799833,22.085639962320784,39.04630775528044,87.53406839953549,83.02965483369245,69.24374856157598,52.186670132183544,55.194138830371514,38.41651545700538,25.48282489510328,12.178971805150764,0.0,0.0,0.0,0.0,0.0,0.0,0.0,0.0,0.0,0.0,0.0,0.0,0.0,3.4110354749179086,29.44380836657443,61.034450764138214,54.78432573071776,114.50324657124908,117.74318711390598,119.18934666039786,108.77917055971686,90.88943012665418,64.28443973932471,28.8392729392522,0.948626346647154,0.0,0.0,0.0,0.0,0.0,0.0,0.0,0.0,0.0,0.0,0.0,0.0,9.316798009755871,48.53121332546418,79.69900681901146,100.08564694605468,111.39719460256786,115.83914493917273,113.29363255808951,101.33599784784782,85.68135470448054,61.56837558449558,28.082653127697956,0.9396642311477678,0.0,0.0,0.0,0.0,0.0,0.0,0.0,0.0,0.0,0.0,0.0,0.0,12.867153643800602,49.356542689180394,80.86978499834038,101.63364871413047,113.93564592295463,118.50551008986892,116.05206307709754,105.43249936884,87.23750385028306,61.88883910841302,28.255105956246755,0.9388494933750964,0.0,0.0,0.0,0.0,0.0,0.0,0.0,0.0,0.0,0.0,0.0,0.0,11.632011180430649,49.72398942465524,79.31173479773496,98.7130853783608,111.15874801443267,116.3901792527562,115.1561231064165,106.22143711204352,89.1035249289583,64.46748415891824,29.975560552871347,1.1129317974692348,0.0,0.0,0.0,0.0,0.0,0.0,0.0,0.0,0.0,0.0,0.0,0.0,11.703708104425738,46.581817414718905,74.57919465554392,92.931706143484,103.79107433616454,108.62844407177263,106.6844797461785,87.42842406834575,30.78106463078588,27.515052479403497,6.631422311030692,0.171638090776124,0.0,0.0,0.0,0.0,0.0,0.0,0.0,0.0,0.0,0.0,0.0,0.0,2.129452958505678,25.628934535669032,38.9406634240907,31.38831585068369,50.16639203521584,56.27936954356991,81.29344864012954,96.27022995663413,62.8570191616043,50.00643185251468,24.138235990937787,0.9032726106351088,0.0,0.0,0.0,0.0,0.0,0.0,0.0,0.0,0.0,0.0,0.0,0.0,1.271262504625058,6.247137661587313,14.09469188795896,65.70154030525798,69.4547656446979,68.47653715897702,66.29819993411105,63.72851699910521,61.49423444718247,45.88005661319121,1.4029784445402798,0.0,0.0,0.0,0.0,0.0,0.0,0.0,0.0,0.0,0.0,0.0,0.0,0.0,12.241978192904025,14.74458105129324,10.478885652842951,26.09930980975803,52.28308076861634,7.59199814501036,7.042050148457115,26.20522572020532,12.447563690874796,32.414613864992184,15.422714457413464,1.161544484571966,0.0,0.0,0.0,0.0,0.0,0.0,0.0,0.0,0.0,0.0,0.0,0.0,11.861495653066449,22.067444152064457,27.717650605541134,54.40194213607728,81.73693756772037,91.25986423396212,91.47549816446252,92.99335463494948,84.26371098003217,62.90889079979771,29.31670927403768,1.247091950702471,0.0,0.0,0.0,0.0,0.0,0.0,0.0,0.0,0.0,0.0,0.0,0.0,15.675826325456734,51.07618254803232,81.68778172210254,103.03581242089808,116.712272252219,122.18242165793532,119.8020294654468,109.5072745492276,91.33590642607813,65.98235325757206,30.923372161745828,1.567827053877475,0.0,0.0,0.0,0.0,0.0,0.0,0.0,0.0,0.0,0.0,0.0,0.0,17.08885320252663,54.31856730400723,84.66754933601966,105.16064853202526,117.44798046094137,121.66153264194068,118.63668287126904,107.89110638750496,90.1360692661906,65.20780921501905,30.795729910693968,1.502919611321314,0.0,0.0,0.0,0.0,0.0,0.0,0.0,0.0,0.0,0.0,0.0,0.0,16.297742825262628,50.02924451014948,78.01657331844486,97.03798451774824,107.25099407744273,110.48007144979736,107.71539460786548,94.29992244305696,82.9310715631992,49.79487161087765,23.48807524834595,1.3144436065766465,0.0,0.0,0.0,0.0,0.0,0.0,0.0,0.0,0.0,0.0,0.0,0.0,9.62368257079546,33.40180446621246,74.60689573981475,87.60522216501545,107.94216328792572,112.07804380126365,108.78921899224648,99.00177412914404,83.58584915316952,61.273440510788504,29.20101651031833,1.490426965473685,0.0,0.0,0.0,0.0,0.0,0.0,0.0,0.0,0.0,0.0,0.0,0.0,9.842032293871418,27.90341081771023,31.10967553243004,42.99126805055571,51.01154668473371,51.18834478140343,26.548773481015125,38.56099562202579,27.94360454782869,11.723261810969854,21.14135888379455,1.3424162701050333,0.0,0.0,0.0,0.0,0.0,0.0,0.0,0.0,0.0,0.0,0.0,0.0,5.960893124122068,3.1886120629785952,17.85253407477736,21.37980547192973,29.89055624525596,47.83352621279985,56.75870693315831,45.87625450358541,29.238494447861218,20.13950300266619,6.145295440003378,0.0,0.0,0.0,0.0,0.0,0.0,0.0,0.0,0.0,0.0,0.0,0.0,0.0,13.536596513678996,17.859595135473846,60.248771972025345,94.97887058694984,105.46020045311082,51.38116605426901,46.52478577063191,46.215728575531855,41.72299291776378,28.04490361089751,4.041370931708073,1.6802608665061385,0.0,0.0,0.0,0.0,0.0,0.0,0.0,0.0,0.0,0.0,0.0,0.0,17.510615789512897,51.86321923643296,78.77183523371131,96.53529131200996,107.25479618704854,111.440647283777,108.387824849577,99.41375986285826,83.18499816901515,60.59829447650141,29.585301159761713,2.3573079555961343,0.0,0.0,0.0,0.0,0.0,0.0,0.0,0.0,0.0,0.0,0.0,0.0,7.516227532151912,50.15742991971645,78.05893968262379,78.50867493313844,97.65854312126636,84.8530379689312,110.02164566304084,44.518086636542066,65.45521791865362,31.24003357605748,17.76915924270731,2.512651290918829,0.0,0.0,0.0,0.0,0.0,0.0,0.0,0.0,0.0,0.0,0.0,0.0,0.5909564644443766,2.491196529571813,4.737156989569513,34.99027154366428,14.640023037133732,8.556647667853388,61.56077136528397,14.466755470812265,17.980176325829223,14.055584474870727,11.10324636596686,1.389671060919979,0.0,0.0,0.0,0.0,0.0,0.0,0.0,0.0,0.0,0.0,0.0,0.0,10.164396872591764,33.007471384239466,66.31313679327668,87.25841545311496,112.15408599337968,116.97488939427676,113.4076958462635,103.81443015231444,87.07021102762785,63.68343484235073,31.49939176702457,3.0348982032012444,0.0,0.0,0.0,0.0,0.0,0.0,0.0,0.0,0.0,0.0,0.0,0.0,1.0507401474886455,1.0425927697619308,14.602001941075732,14.393700650529391,35.24962973463136,24.61838811829884,49.87933275997793,21.148419944491028,16.613589501801602,13.988504398254111,6.859005728863591,0.1846738951388676,0.0,0.0,0.0,0.0,0.0,0.0,0.0,0.0,0.0,0.0,0.0,0.0,18.58525491166657,28.157337423526176,76.48215051324692,95.91744850106738,108.82506745424402,114.48016233435672,73.47848392466476,71.1738623450347,87.77930446910959,52.44983043275643,31.597703458260252,3.0169739722024715,0.0,0.0,0.0,0.0,0.0,0.0,0.0,0.0,0.0,0.0,0.0,0.0,22.913413539355,59.194501294188456,87.15059848786478,106.86236415987844,117.70027759121194,120.54344083857784,116.78749970656234,106.26135926290443,88.9919058541023,65.15865336940121,32.526504519105735,3.157923606874637,0.0,0.0,0.0,0.0,0.0,0.0,0.0,0.0,0.0,0.0,0.0,0.0915222097967623,22.540535218729023,56.733178482947935,82.83846303637222,101.14833658087582,111.85127512120344,115.02169137392572,112.63641075480118,102.25257784210322,85.07573296012808,61.993940281087646,30.78024989301321,3.20735103175004,0.0,0.0,0.0,0.0,0.0,0.0,0.0,0.0,0.0,0.0,0.0,0.0176526517412152,21.55470251379654,54.34653996753563,81.42570773855986,101.43919796571954,113.31372942314874,118.14593915286324,115.55778882834352,105.32631187913516,88.37542093944755,64.22360598563192,31.986876534339665,3.5207534949710007,0.0,0.0,0.0,0.0,0.0,0.0,0.0,0.0,0.0,0.0,0.0,0.2373602711049563,22.10410735183467,41.88512573452541,71.51306483772359,82.58046274169291,109.22238790805017,90.32617474648062,88.95795844690767,82.73064607112202,63.307297570634056,45.14787893481711,22.95659464130659,3.005839222642628,0.0,0.0,0.0,0.0,0.0,0.0,0.0,0.0,0.0,0.0,0.0,0.2289413141206844,22.15978109963389,55.23487571900508,81.48898570557068,99.3203365982586,110.2837196465835,114.95162392547594,113.17658189808236,103.78455643398316,56.64763101681742,63.439556669064395,31.527907589068064,3.6619747089007224,0.0,0.0,0.0,0.0,0.0,0.0,0.0,0.0,0.0,0.0,0.0,0.313945621736075,22.431088777933493,54.48341591334442,79.75468056681069,98.6756074408179,110.67017693008734,116.83584081440752,116.64926586446576,107.54158388302888,90.8891585473966,67.05753553824086,33.73285958117463,3.9734761173187834,0.0,0.0,0.0,0.0,0.0,0.0,0.0,0.0,0.0,0.0,0.0,0.3918888686549794,25.610467146155145,60.476626969115806,86.92301507003187,105.70217757159423,116.90971037246308,120.81284746207454,116.95587884624778,106.31051510852228,88.8417225246732,64.35260613297156,32.339657989906414,4.078848869250961,0.0,0.0,0.0,0.0,0.0,0.0,0.0,0.0,0.0,0.0,0.0,0.3927036064276509,17.066583703406945,38.7720127051477,64.62934539642231,103.20147576800794,114.2072251805118,117.4705215393186,113.9522122576656,103.5852172589362,87.6207021826962,64.2154586079052,32.80650273364717,4.201602693666796,0.0,0.0,0.0,0.0,0.0,0.0,0.0,0.0,0.0,0.0,0.0,0.5847101415205619,23.912553627907787,55.89807226595967,80.85865024878053,98.56181573190143,108.27077418956988,110.76360019468704,107.5345228223324,84.15860980735755,81.26683387288894,58.962844187492195,30.030962721413008,4.328430206945989,0.0,0.0,0.0,0.0,0.0,0.0,0.0,0.0,0.0,0.0,0.0,0.5341963996149304,7.851899494492561,38.61666936982501,25.537955484387385,60.47146696322221,77.53044644741755,77.4003599830477,93.478123609689,39.451232428298155,23.801749290824468,39.49930195688578,15.700811617151992,4.096773100249733,0.0,0.0,0.0,0.0,0.0,0.0,0.0,0.0,0.0,0.0,0.0,0.7199566117840266,23.512245802268534,54.06572701522152,50.435255500197435,65.66379078845752,73.64143147919906,46.19128644235172,51.89933927768807,27.798852803550723,20.549044523062385,4.731182245903255,3.593536735996319,0.0893495757363051,0.0,0.0,0.0,0.0,0.0,0.0,0.0,0.0,0.0,0.0,0.0,0.7669398233414151,3.774951680044501,4.600552623018262,13.606392382871189,27.257866922496863,27.24374480110389,30.90381845520172,42.717244579680546,17.584756926826,21.463451883257335,14.004255995192423,6.26832084367677,0.655320748485423,0.0,0.0,0.0,0.0,0.0,0.0,0.0,0.0,0.0,0.0,0.0,1.1091296878634345,3.923505533928266,12.315576171702014,24.202600274978835,33.39148445442529,29.060338454903725,29.430229403696575,47.08994220560835,50.37931017314065,53.68062762800547,25.74326940310059,6.310144049340574,4.902277178164264,0.0,0.0,0.0,0.0,0.0,0.0,0.0,0.0,0.0,0.0,0.0,1.3456752211957193,16.584802100500543,24.800889379377253,34.49654045342536,35.522295309218755,54.2642514524958,65.7083297866969,69.04115043543835,79.91219653619383,83.02259377299596,59.52039640325704,30.031777459185676,5.089395286621146,0.0,0.0,0.0,0.0,0.0,0.0,0.0,0.0,0.0,0.0,0.0,1.868465291993249,26.81166220233045,59.34115409326932,84.46142067953379,102.48776547914773,113.59454237546282,117.17368541080864,114.8715080444966,105.2893771001074,88.51229688525636,64.98918791268554,33.548185686035765,5.076631061515961,0.0,0.0,0.0,0.0,0.0,0.0,0.0,0.0,0.0,0.0,0.0,2.065088674464632,29.33028823691554,62.993623528155545,87.676647509753,104.3928939709112,113.6860645852596,116.21799800346496,113.15078186861444,102.66537831359013,85.27480055591748,61.84701590274922,31.984432321021647,5.091024762166489,0.0,0.0,0.0,0.0,0.0,0.0,0.0,0.0,0.0,0.0,0.0,2.2560088925273143,29.22437232646825,61.99692765292077,85.4103186054385,102.56516556755152,111.6782791341395,113.33599892226842,108.77183791976282,100.19971023422868,85.34106589476144,63.00910354583629,32.99959558577031,5.281130242456501,0.0,0.0,0.0,0.0,0.0,0.0,0.0,0.0,0.0,0.0,0.0,2.6503419745003085,27.432492385106116,57.89037769939898,80.78125016037674,85.3513859065486,106.70430503198016,93.62993641466343,106.58535331717016,81.6220595417737,53.24854502923203,60.157249762228574,30.75716565612085,5.535600006787558,0.0,0.0,0.0,0.0,0.0,0.0,0.0,0.0,0.0,0.0,0.0,2.009686505922972,15.908841328440776,43.14172295924238,42.327256765828466,52.27737760420763,73.10696350032656,112.57394752556304,108.4272038419228,54.94211327935847,45.852355528920384,40.45200199239628,17.170326979793778,3.843389652948904,0.0,0.0,0.0,0.0,0.0,0.0,0.0,0.0,0.0,0.0,0.0,3.1538499180112796,19.043137539907946,56.587612000897295,70.10030953991125,84.00082225871685,14.028154969857455,24.730007193154837,28.14620267396633,6.735437166675083,26.145478283542744,13.244377232547496,17.508714734709994,5.429955675597824,0.0,0.0,0.0,0.0,0.0,0.0,0.0,0.0,0.0,0.0,0.0,3.0908435302580184,28.302632326319255,23.06848529542014,26.375505914693655,100.21519025190942,110.77283388944396,114.44186965904116,55.633554069099,102.5811887437474,86.38012813417512,63.64025374039913,33.41538342909031,5.490246270775513,0.0,0.0,0.0,0.0,0.0,0.0,0.0,0.0,0.0,0.0,0.0,3.302132192637488,29.78871402367202,61.218853080019514,83.65157133349835,99.90640463606694,109.27561744253134,112.17282496215113,109.46382186801844,100.24017554360468,84.77265050869431,62.37062071131942,32.71172157275972,5.714570737517725,0.0,0.0,0.0,0.0,0.0,0.0,0.0,0.0,0.0,0.0,0.0,2.5870640074894897,16.55194101033613,40.33223553981358,79.81198379015525,82.39470252952381,86.06183724431813,109.17458995872006,93.9612631088832,96.66374830083448,81.47622148046551,59.85606836559769,31.51242757138731,5.879419346854921,0.0,0.0,0.0,0.0,0.0,0.0,0.0,0.0,0.0,0.0,0.0,3.7787537896503007,28.465579880853547,58.14946431110852,64.34310085895706,73.08143505011618,104.51809200864504,107.82456946940344,105.1649938001462,96.3180279059642,81.63455218762132,59.80175251408625,31.77450155492996,6.021726877814871,0.0,0.0,0.0,0.0,0.0,0.0,0.0,0.0,0.0,0.0,0.0,3.994387720150685,28.743677040592075,58.380849838547206,81.11665054345983,97.4540439403258,106.72168610446384,110.50315568668972,107.64125347055236,97.82719384020936,66.17408821340743,57.09247784069605,28.504144135426664,5.867741438779963,0.0,0.0,0.0,0.0,0.0,0.0,0.0,0.0,0.0,0.0,0.0,4.293396482721115,27.480561913693737,44.721499500452374,63.30811230840673,73.96542553346474,77.8452068069263,69.53678258048015,24.508670098245755,11.492419442046268,5.155389046207536,33.36188231535155,11.933192577061536,2.6020008666551333,0.0,0.0,0.0,0.0,0.0,0.0,0.0,0.0,0.0,0.0,0.0,4.391165015441692,28.28688072938094,57.08405888371177,78.84597637102442,94.0549579527404,82.22170654245991,103.2169557856887,83.06251592385688,59.395741524038314,79.20717678357545,58.7105470572216,31.376094784093613,6.238175546087927,0.0,0.0,0.0,0.0,0.0,0.0,0.0,0.0,0.0,0.0,0.0,4.11714154456652,23.703980758103892,50.06916666101038,72.09886129627439,78.77699523960491,80.81519756757137,91.64632151746596,104.56860575055066,95.06659068714082,70.4416846666606,53.243656602596005,22.912327222324773,5.443263059218124,0.0,0.0,0.0,0.0,0.0,0.0,0.0,0.0,0.0,0.0,0.0,4.720319075600969,27.80319807167164,48.406830025503005,56.62481835918262,82.70430288313898,95.9744801451544,109.07519195045415,106.28661613385728,97.46463553137052,81.87652930610474,56.474906609011065,32.67424363521683,6.715883460130968,0.0,0.0,0.0,0.0,0.0,0.0,0.0,0.0,0.0,0.0,0.0,4.981849900628513,27.204637388015662,38.867337024550274,69.04006411840811,79.10397666570374,74.25710165608112,85.35220064432127,104.9721725272806,79.75359424978046,81.43521301257438,60.643919791771,32.99823768948252,6.773458262733086,0.0,0.0,0.0,0.0,0.0,0.0,0.0,0.0,0.0,0.0,0.0,5.1067763591048045,29.74010133656929,32.550403493770766,80.32798437951385,58.94600627352366,73.90404862125682,65.19151445956562,62.23048581441992,3.3132669421973313,13.372562642114476,0.6574933825458802,32.54334243307428,6.7729151042179705,0.0,0.0,0.0,0.0,0.0,0.0,0.0,0.0,0.0,0.0,0.0,5.599964290828605,11.671661752033993,44.96619241151137,63.461554588926525,43.75657839835179,108.29032789611398,112.03431954079696,110.4846882971758,102.00652703475646,87.11855213547304,33.516682492159134,35.559773246761644,7.388856860357606,0.0,0.0,0.0,0.0,0.0,0.0,0.0,0.0,0.0,0.0,0.0,5.783823448194801,33.85371235078757,66.26886937429487,91.1604662256962,109.06052667054604,119.55299128626687,123.10171744476628,119.29091730272424,109.10750988210346,91.79161642025905,68.54714776594187,37.19902564537665,7.467343265791624,0.0,0.0,0.0,0.0,0.0,0.0,0.0,0.0,0.0,0.0,0.0,5.98642157433244,35.64477755437703,67.7679868760104,90.81501741008351,107.49840278107727,116.28915176894496,118.95035691374756,116.6389458526786,105.39990985793315,88.6217433260519,65.1415438761751,35.1390969768056,7.871996359551791,0.0,0.0,0.0,0.0,0.0,0.0,0.0,0.0,0.0,0.0,0.0,6.548590637475758,33.55551832598981,63.92215300974346,87.45911252444971,104.9702714724777,114.80605744342532,117.27688552868034,114.1740925110898,103.57028039977055,87.65845169949667,64.91042992799396,35.4541289155719,7.68569298886758,0.0,0.0,0.0,0.0,0.0,0.0,0.0,0.0,0.0,0.0,0.0,6.129543843065063,33.43982556227046,62.754090622990134,83.89517792752712,97.92822132402058,105.74508709428828,109.58684727169182,108.16132774877433,100.1671207233218,85.78129587126158,64.27955131268868,35.59779434281964,7.991491232876941,0.0,0.0,0.0,0.0,0.0,0.0,0.0,0.0,0.0,0.0,0.0,6.467388439466168,33.104425179187366,61.94967286210583,84.06953181087881,100.40257993962386,109.51460718918165,112.61712862751462,109.50374401887936,100.85747519603213,84.99371602434582,63.62314424717302,35.31100664683928,8.103381886990489,0.0,0.0,0.0,0.0,0.0,0.0,0.0,0.0,0.0,0.0,0.0,5.810981373950516,24.37423836575496,7.319332570422974,49.92414333747486,54.369081045912864,43.56620133880422,88.16902070370413,78.48423279995829,36.456256375957814,52.972620503553955,33.53650777796081,19.008103815683068,5.681166488838195,0.0,0.0,0.0,0.0,0.0,0.0,0.0,0.0,0.0,0.0,0.0,6.48721372526784,30.263706145139498,60.48314487129717,81.36541714338219,96.16186983286885,104.0960578424012,106.3523383141861,103.64632259188656,94.8992978644856,80.25981798586699,59.76373141802826,33.05526933356953,8.161228268850163,0.0,0.0,0.0,0.0,0.0,0.0,0.0,0.0,0.0,0.0,0.0,7.005658527944456,31.70524884425289,59.16707178917518,80.08084725513683,96.06871814752674,104.96266725326612,62.61612836015109,105.07808843772791,96.64229353948744,81.72308702558499,60.69687774699466,33.562579386686295,8.040918657752343,0.0,0.0,0.0,0.0,0.0,0.0,0.0,0.0,0.0,0.0,0.0,6.675689730012508,31.20282721777215,58.95632628531082,80.22967268827814,95.83841893711828,74.88553605806838,66.32562943912433,71.47287110760514,32.090348231468944,12.281357185249815,48.73381145160183,13.62241555906706,8.372516931229633,0.0,0.0,0.0,0.0,0.0,0.0,0.0,0.0,0.0,0.0,0.0,7.036346984048414,34.95007781354582,65.11547226744962,87.51288521744601,103.23868212629328,112.43381262866356,114.94809339512771,111.71983076054576,102.0714344773126,86.2313027010338,64.38601038165109,35.92015892153999,8.521342364370955,0.0,0.0,0.0,0.0,0.0,0.0,0.0,0.0,0.0,0.0,0.0,5.992124738741141,22.331690769667567,47.42099732057053,84.53067339021088,99.95311626836676,108.38347958145609,111.08080476751375,108.32210266924815,99.3716650779369,84.57439765067758,63.46209774744164,35.50219844415952,8.497443389705927,0.0,0.0,0.0,0.0,0.0,0.0,0.0,0.0,0.0,0.0,0.0,6.753632976931413,27.454761884225807,63.17802584403686,84.77047787463384,86.54226095093674,106.96094743037168,108.99616238650502,105.53244053562103,85.5624029896705,60.18223505392384,42.94808694860413,28.161139533131973,7.986602806240912,0.0,0.0,0.0,0.0,0.0,0.0,0.0,0.0,0.0,0.0,0.0,1.8174083915725032,7.416286365370879,10.95034724396218,13.529263873724956,15.386051257643247,42.94863010711924,65.25832295692469,55.22917255459639,38.074597171740926,23.312363468706472,5.955189959713367,0.9152220979676234,0.0,0.0,0.0,0.0,0.0,0.0,0.0,0.0,0.0,0.0,0.0,0.0,6.697144491359524,25.62486084680567,44.58978356053716,59.73738823004521,80.35541388452712,79.38696225207828,45.86131764441977,54.24985775184528,52.62418431610811,11.477754162138185,45.43629610634281,33.962072474552876,8.955869176462409,0.0,0.0,0.0,0.0,0.0,0.0,0.0,0.0,0.0,0.0,0.0,7.284570425455658,32.41216965167417,50.8969402380446,33.564480441489195,45.96125881120081,74.72992114348814,35.90739469643481,32.963475544515205,96.33323634438742,81.71493964785824,61.15177300340289,34.683930141139804,8.904540696784105,0.0,0.0,0.0,0.0,0.0,0.0,0.0,0.0,0.0,0.0,0.0,0.0,0.0,0.5629838009159891,9.450143425216435,23.89625887245436,38.8475117387486,53.88811418077914,70.41153936907176,20.12049245463719,6.580636989867503,4.514190419115086,5.334631356195261,1.489340648443456,0.0,0.0,0.0,0.0,0.0,0.0,0.0,0.0,0.0,0.0,0.0,7.411397938734851,18.831848877528472,44.21473260585072,82.97370950663566,98.05341936175444,106.77247142562702,87.65383485211817,69.5294499405261,68.83583651672512,74.29512275213914,62.9501708469464,35.66378810240603,9.100620920740374,0.0,0.0,0.0,0.0,0.0,0.0,0.0,0.0,0.0,0.0,0.0,7.844838433796074,34.771921820588325,63.57697577338832,85.93799710287206,101.83488894398032,111.47893995909256,115.07193353657378,111.59952114944794,101.72489934466968,77.1624565534276,64.85041091207384,29.43837678142329,8.87086486884702,0.0,0.0,0.0,0.0,0.0,0.0,0.0,0.0,0.0,0.0,0.0,8.18078197539428,35.498667913811275,63.67175693427576,84.18359509905282,98.56806205482528,106.89441051227018,110.0784057278703,107.98045596324124,100.29231876105568,85.57353773923036,64.66465069990474,37.26556256347815,9.85887020783996,0.0,0.0,0.0,0.0,0.0,0.0,0.0,0.0,0.0,0.0,0.0,8.002354403179227,34.79636395376847,62.64708839551261,83.28656881134152,97.36360804755928,74.44693555711358,108.52823132573404,104.35813182594389,96.11542977982656,81.87082614169606,61.7571231684978,35.661343889088016,9.84474808644699,0.0,0.0,0.0,0.0,0.0,0.0,0.0,0.0,0.0,0.0,0.0,8.035487072601201,33.28285275140242,60.71507355725098,82.13534433855672,97.50238504817096,105.94741364116835,106.82217042975998,51.39909028526778,92.86734185944296,53.22193026199143,53.74146138169827,34.913957772290715,10.0557651695689,0.0,0.0,0.0,0.0,0.0,0.0,0.0,0.0,0.0,0.0,0.0,8.14058824527582,32.93251550915369,59.86611679812731,80.09958622390828,94.28552874240644,91.01462816438804,105.85833564468962,103.31689695246976,75.68180644122597,66.01711540253939,61.065139220242166,35.47395420137358,9.984611404088923,0.0,0.0,0.0,0.0,0.0,0.0,0.0,0.0,0.0,0.0,0.0,7.907844821549335,35.02476210937404,64.04843736450755,66.07088809553571,101.19939348129655,84.35251739725335,76.58888116146687,109.51324929289385,70.11959166719782,84.69334936548762,49.106146613712696,37.020598073161594,10.113068392913462,0.0,0.0,0.0,0.0,0.0,0.0,0.0,0.0,0.0,0.0,0.0,7.996108080255412,34.129908455723196,61.68325361044224,82.06093162198607,97.0502055843383,67.0643250196798,86.97026986084683,104.58354260971632,96.62708510106424,82.37379092669192,62.080574064248374,35.84900515606002,10.27547278893264,0.0,0.0,0.0,0.0,0.0,0.0,0.0,0.0,0.0,0.0,0.0,7.944779600577109,33.01154507310282,60.09207074041487,80.81709862237427,96.34165530137167,105.57372058276972,108.93369915726689,84.99969076801209,96.02553704557516,81.22093697836176,48.92364535263429,35.61490383604574,10.310506513157517,0.0,0.0,0.0,0.0,0.0,0.0,0.0,0.0,0.0,0.0,0.0,8.235912564678383,32.666367836747675,58.87295145324078,79.16834094974476,75.60467793207975,102.0537818255714,29.677094948816027,70.76323450760829,39.11012888080637,58.21437175366467,51.472416684808216,31.395376911380172,9.888743926171248,0.0,0.0,0.0,0.0,0.0,0.0,0.0,0.0,0.0,0.0,0.0,8.09360503371843,33.279865379569294,59.84248940271983,79.81497116198837,93.80266082246982,101.34903365221057,103.57489724714904,101.2594124972167,66.93749750640059,53.34332619011949,59.99077167734604,0.0991264290083627,0.0,0.0,0.0,0.0,0.0,0.0,0.0,0.0,0.0,0.0,0.0,0.0,8.336668469232087,32.4189591331131,57.99520729281604,77.42778948806095,91.4915213406584,99.10687530181866,101.25805460092892,91.34052327345664,75.2823133533594,68.23211582717556,58.2477760023442,29.224915484983363,7.885032163914534,0.0,0.0,0.0,0.0,0.0,0.0,0.0,0.0,0.0,0.0,0.0,8.166659854001308,32.823340647615716,59.006840027216455,78.87530693084061,91.43258864176848,99.57616425887744,60.956235937961736,84.19119931826441,91.36197803480364,77.65781711921186,58.713534429054725,34.546782616073436,10.941113549205236,0.0,0.0,0.0,0.0,0.0,0.0,0.0,0.0,0.0,0.0,0.0,8.44068332487648,24.74087036345712,56.78939538926226,75.38551347123112,88.32137666719368,96.23709728721217,99.19187960943404,84.62328191703786,75.83036029510976,51.419458729584576,36.00000322326179,24.20504448829685,8.10989978917186,0.0,0.0,0.0,0.0,0.0,0.0,0.0,0.0,0.0,0.0,0.0,4.243425899330599,22.743404924124224,34.39904349996234,55.870914340203946,84.31585419748316,87.3950198196662,92.40647185936844,83.44707215255781,84.57113869958688,68.91377976364404,37.56945975268461,31.72181517896388,7.600145522737075,0.0,0.0,0.0,0.0,0.0,0.0,0.0,0.0,0.0,0.0,0.0,4.383017637714977,10.84714712609046,36.10401807890618,54.07414597220579,66.64826559710222,68.67533317550885,84.73381467486362,88.03187317863777,83.78029990158043,67.50346867914972,48.95949381463183,35.18472229207521,4.953605657842568,0.0,0.0,0.0,0.0,0.0,0.0,0.0,0.0,0.0,0.0,0.0,0.0,15.32087223582953,31.712581484206932,20.239172590189668,34.902551443473314,53.81696041529917,49.35491321363506,101.26565882014052,87.52239049146053,65.50600323981682,25.405153227441932,19.292175719087854,6.9049026233907504,0.0,0.0,0.0,0.0,0.0,0.0,0.0,0.0,0.0,0.0,0.0,7.3483915509815905,32.48468131344193,40.468839906364835,78.1387839843456,55.08414923106086,54.60399710369981,53.0978185412878,74.09578357709218,73.21287941077385,16.46096195905448,16.922646696901648,26.440684936507378,11.265107603470929,0.0,0.0,0.0,0.0,0.0,0.0,0.0,0.0,0.0,0.0,0.0,2.7459378731604276,10.8088544507749,15.786902241797613,42.98529330688945,76.58154852151284,56.08111668555319,83.11737493388343,28.936498313457665,30.030419562897897,20.80269954962077,11.735211298302366,10.714073289887452,1.834246305541047,0.0,0.0,0.0,0.0,0.0,0.0,0.0,0.0,0.0,0.0,0.0,8.528946583582556,32.70656156686613,28.83221187855571,51.46671352039951,78.56380552242254,83.51741118026511,86.22668585365533,83.18255395569713,96.11244240799346,82.03051474513968,43.38397165698337,36.66184187392859,11.94622838142428,0.0,0.0,0.0,0.0,0.0,0.0,0.0,0.0,0.0,0.0,0.0,8.194360938272137,34.88191141989897,62.75354746447501,62.00914871951085,98.12918997461288,53.8585120417054,83.58910810426019,106.98511798429428,97.77396430572811,82.68420601807975,62.15634467710682,11.186892777294466,10.692618528540436,0.0,0.0,0.0,0.0,0.0,0.0,0.0,0.0,0.0,0.0,0.0,8.110714526944532,33.24646113088976,60.23274879582947,80.5653446506188,95.73195986815588,82.26814659550217,106.6597660337408,104.02300302211832,95.70045667427922,61.76907265583031,46.56688055555327,36.60019338246311,10.18965374354458,0.0,0.0,0.0,0.0,0.0,0.0,0.0,0.0,0.0,0.0,0.0,7.882587950596519,33.17693684095513,60.04345805331213,80.26199061992746,95.11683284978888,103.6302994156907,77.03128377202749,104.2247864104833,96.11787399314458,82.32544981884674,63.05309938556056,37.725889405037535,11.730594450923896,0.0,0.0,0.0,0.0,0.0,0.0,0.0,0.0,0.0,0.0,0.0,7.7519583277115265,31.97302599220425,57.89716718083792,77.82375204557928,91.28240531233938,99.14190902604356,78.33567894607452,99.72498969201877,91.99720191822982,79.5390466363103,61.0097370517005,36.82098731885708,11.90766412685116,0.0,0.0,0.0,0.0,0.0,0.0,0.0,0.0,0.0,0.0,0.0,8.030055487450056,32.13298617490541,58.54434055159662,78.69307724901974,93.62396167099722,102.67053831948368,79.00104812708956,55.14172403366298,95.68497665659848,81.64623009569631,63.10605734078421,28.865072968720128,8.836917461652375,0.0,0.0,0.0,0.0,0.0,0.0,0.0,0.0,0.0,0.0,0.0,8.164758799198408,33.10388202067226,60.53474493023303,81.00530304786139,95.9972928027892,105.4197351437348,109.44481131998946,107.16381713576688,99.07591526645714,85.54529349644442,66.03422489576549,39.97999724276195,12.762595629641098,0.0,0.0,0.0,0.0,0.0,0.0,0.0,0.0,0.0,0.0,0.0,8.015118628284414,34.364552934252586,61.65962621503478,81.78636499259578,95.37130261411995,92.92627455833284,50.94745397995023,105.58567007010224,83.58313336059395,83.72000930640274,64.51555368750584,37.80356107269888,11.0611515810455,0.0,0.0,0.0,0.0,0.0,0.0,0.0,0.0,0.0,0.0,0.0,6.1534428177300935,13.941249607439168,38.81302117303884,64.34635981004774,92.68837112871276,88.23338498774515,82.39388779175114,63.77224125957191,45.79613862260605,63.61200949761319,39.18264054257413,27.262483769875335,6.079844838932103,0.0,0.0,0.0,0.0,0.0,0.0,0.0,0.0,0.0,0.0,0.0,0.0,8.633233018484507,9.63916258847622,22.195901140888992,34.00416725947424,40.71000228707559,49.80220425083169,73.25470261643765,62.18268786508987,61.97492973305864,41.24121131485739,34.93161042403193,10.16765582368245,0.0,0.0,0.0,0.0,0.0,0.0,0.0,0.0,0.0,0.0,0.0,0.4459331409088539,8.472186518753112,19.992850203585323,60.98448018074769,70.19726333485917,64.76975187257936,38.61341041873433,87.35482608954774,96.69497991545356,65.689862397183,59.65455655649028,36.81121046558502,12.83402097437863,0.0,0.0,0.0,0.0,0.0,0.0,0.0,0.0,0.0,0.0,0.0,7.561038109648845,31.43882959258932,57.671756397065465,78.84380373696396,95.20265189517696,78.5293149567128,83.55244490448999,94.1095453835094,89.58693600741006,75.53759785546312,49.18273196434381,24.928260051171563,9.695107915532994,0.0,0.0,0.0,0.0,0.0,0.0,0.0,0.0,0.0,0.0,0.0,7.049111209153602,9.49957085009184,30.532569610121083,38.69243998268346,76.45960943486968,53.63445915422076,59.92640739330499,74.63106629373733,80.80216176320863,51.61119368541992,43.23840517493274,32.576203523238696,11.815598758539286,0.0,0.0,0.0,0.0,0.0,0.0,0.0,0.0,0.0,0.0,0.0,7.314444143786945,14.442041758374565,59.143715973025266,44.43281074966912,44.27040635364993,72.26561096041448,69.08405995813237,66.49590963361265,40.95225098481658,66.67705299840328,9.246730561306126,36.766671467345645,10.906894562753036,0.0,0.0,0.0,0.0,0.0,0.0,0.0,0.0,0.0,0.0,0.0,4.6190200125321486,6.022270036329986,20.305166349776055,47.01743054384059,45.844751309708776,85.71584527019031,85.35491643689684,104.12810419479298,87.77848973133692,76.66763914615846,53.05518059785133,35.07799164385524,12.811479896001387,0.048069528587617,0.0,0.0,0.0,0.0,0.0,0.0,0.0,0.0,0.0,0.0,6.147468074063835,27.775225408143253,46.72792705528465,33.84366391825795,46.78278606531121,41.46580736085716,44.550676147448925,35.45195628151144,32.163946210266936,49.61725877643527,53.04377426903393,39.21523005348099,12.48694268322058,0.1186801355524781,0.0,0.0,0.0,0.0,0.0,0.0,0.0,0.0,0.0,0.0,0.0,10.825963944001002,23.548094264266084,43.37147901113574,39.381164979848414,57.82655657387305,68.40701286904238,63.679904312002485,66.91767222059892,58.22604966173962,29.04295738242007,24.922013728247745,0.2292128933782415,0.0,0.0,0.0,0.0,0.0,0.0,0.0,0.0,0.0,0.0,0.0,6.5752054047163595,31.528722326840732,58.71462074608496,6.967365852628896,28.826780293404568,81.06179153343328,89.38325156424219,87.62097376195378,95.97610962069976,82.83737671934198,63.936546710394,39.20273740763336,12.907075794661507,0.1148780259466779,0.0,0.0,0.0,0.0,0.0,0.0,0.0,0.0,0.0,0.0,6.788938280413844,31.206086168862832,58.09976530697555,78.33975263493788,91.8236627726508,100.49817583828398,103.69140474864106,102.2642557501782,96.0841981652075,83.4147542209085,60.033409620782514,33.553074112671794,12.06110640737096,0.0448105774969311,0.0,0.0,0.0,0.0,0.0,0.0,0.0,0.0,0.0,0.0,5.840040354509132,31.251168325617325,58.33685399882295,78.55701604098361,93.27987075167228,102.02200705243722,105.57969532643598,101.91663430050502,94.77491456452442,81.8724556172414,59.16517073437228,32.95913027639429,8.816005858820473,0.0,0.0,0.0,0.0,0.0,0.0,0.0,0.0,0.0,0.0,0.0,6.436699983362209,27.99058775938608,44.048797679483286,64.7974529568502,83.93129796878223,88.2819976748479,68.52243405350417,71.6689513315614,39.36595654142521,73.93881076622415,51.54710098063643,28.579371589769995,11.001404144382926,0.0,0.0,0.0,0.0,0.0,0.0,0.0,0.0,0.0,0.0,0.0,0.3248087920383613,27.097363581280582,40.34201239308564,56.223695795770695,89.41013791074033,98.19409741716906,101.75966148963698,99.94686994544296,93.34233398091042,65.27380297460545,43.49559073183936,1.5621238894687746,2.9694476021299687,0.0,0.0,0.0,0.0,0.0,0.0,0.0,0.0,0.0,0.0,0.0,1.2427466825815563,21.45476134701551,45.21658848697907,67.41982226782211,81.12860003079236,81.05310099719146,89.33192308456387,87.70027490516047,69.32033391220709,59.752053509953306,51.82845709146565,32.79156587448152,12.08962222941446,0.0,0.0,0.0,0.0,0.0,0.0,0.0,0.0,0.0,0.0,0.0,6.7335361118721835,28.738517034698493,57.05988832978919,76.76133399001569,89.48509378582611,97.97846348666867,88.49274317871226,60.73245462973464,74.97950248118316,69.80510288694663,48.17897502841256,31.807905803609497,8.283438934750885,0.0,0.0,0.0,0.0,0.0,0.0,0.0,0.0,0.0,0.0,0.0,7.023039600428113,29.006837341164964,54.555927575112186,61.385331164902055,42.097500713935105,83.32866359626288,88.36075565953946,72.47173961690036,84.02227702006387,71.83026941055036,46.221160160683,14.49391339656798,10.80994076780513,0.0,0.0,0.0,0.0,0.0,0.0,0.0,0.0,0.0,0.0,0.0,6.5488622167333155,29.361248272277056,55.5656592547097,75.71955595802643,90.66700671471486,99.32278081157662,67.1085924386616,100.22089341631816,94.13262962040174,81.65166168084744,63.25108066431974,38.94147816186337,13.10750128673869,0.0,0.0,0.0,0.0,0.0,0.0,0.0,0.0,0.0,0.0,0.0,5.652107508279579,29.83814144854743,56.65604997380169,77.16327129120027,91.36632330292456,100.06663639802564,86.14982892376665,72.15426346481605,30.398137877630287,67.44317808397203,56.26307478811649,26.068078195138952,10.409632942165878,0.0,0.0,0.0,0.0,0.0,0.0,0.0,0.0,0.0,0.0,0.0,5.125515327876249,29.342237724248054,30.475809545291632,60.20803508339176,89.22084716822299,75.63482322966858,60.916856945615955,16.885711917873877,64.74748237345968,72.55158391862217,62.53981458877754,33.332551755535384,12.52822273036927,0.0445389982393739,0.0,0.0,0.0,0.0,0.0,0.0,0.0,0.0,0.0,0.0,6.146924915548722,29.27787344020701,55.61725931364556,76.29747661810806,64.59594114774278,73.9206149559678,89.96769012650518,77.18608394883508,46.558733177826554,6.102929075824463,29.029921578057326,28.80641184908778,11.733310243499467,0.0,0.0,0.0,0.0,0.0,0.0,0.0,0.0,0.0,0.0,0.0,2.725026270328527,20.87629752841876,38.60336198620471,65.70072556748529,78.88209641227954,76.07668268171409,53.721636095896606,87.66008117504201,75.09763945822053,62.24297846026756,34.537005762801385,30.010865856353774,8.320916872293774,0.0,0.0,0.0,0.0,0.0,0.0,0.0,0.0,0.0,0.0,0.0,5.135563760405864,22.53591837135055,38.351608014449226,50.44666182901483,44.820082770945625,99.68751175447588,80.68158057285325,103.36415174328468,83.52664487502204,67.36958010517404,49.015167562431046,33.19920634007482,12.584982795198718,0.0,0.0,0.0,0.0,0.0,0.0,0.0,0.0,0.0,0.0,0.0,5.349296636103348,25.958903333600976,52.2344680815136,56.614498347395454,92.85294815879244,102.3560495392325,105.73096497289532,92.6413879171554,84.34545633655688,72.7137167353838,52.65758856478766,39.18209738405901,13.191962435838963,0.0,0.0,0.0,0.0,0.0,0.0,0.0,0.0,0.0,0.0,0.0,5.3275702954987745,28.981852049469705,56.295392719765786,45.98108409700247,27.89200448889283,101.16734712890482,18.8386383589674,88.03105844086507,79.46816445008788,68.28480220314167,45.94659353129271,11.794958734964942,7.57108654217846,0.0,0.0,0.0,0.0,0.0,0.0,0.0,0.0,0.0,0.0,0.0,5.648305398673778,28.26352491323102,54.67813824101291,75.4300524694705,63.01616460653278,60.05676543693244,65.4788453140611,100.76839719955336,93.021870456993,61.70552310956194,18.735981399610797,25.464085926331833,10.288508593295385,0.0,0.0,0.0,0.0,0.0,0.0,0.0,0.0,0.0,0.0,0.0,5.674377007399265,28.22305960385501,54.50595699172167,75.04522466151201,88.77545718582924,97.81252856030125,101.14018920314912,99.09574055225882,92.30870332664789,79.62350778541058,61.64441777661158,27.746166427584637,0.5428869358567595,0.0,0.0,0.0,0.0,0.0,0.0,0.0,0.0,0.0,0.0,0.0,5.800389782905787,18.12574280787986,32.81247747731342,49.31091737391079,68.65279209713161,59.005753710186234,81.10524421464243,102.09886398232588,94.77355666823664,29.920158384329692,6.6675423522857935,20.37740643228626,10.199430596816637,0.0,0.0,0.0,0.0,0.0,0.0,0.0,0.0,0.0,0.0,0.0,5.7648129001658,13.040149630864514,25.29163309778304,47.28412137476172,44.739695310708704,74.99090881000058,83.54511226453594,86.45481243000333,87.02159834052513,81.2068148569688,62.11071936183722,30.744944589530775,11.973929465695113,0.0,0.0,0.0,0.0,0.0,0.0,0.0,0.0,0.0,0.0,0.0,5.531526317924199,13.283756224893285,55.72453312038065,59.48807847160774,79.30847584664427,89.34360099263883,86.03250668450195,91.13357987919808,97.1523193851798,61.20473095862654,48.60236709094416,12.101028558231858,9.55986144526953,0.0,0.0,0.0,0.0,0.0,0.0,0.0,0.0,0.0,0.0,0.0,5.192052245977752,28.256463852534537,55.91137964957997,77.89870792066507,91.651209944102,101.3335536345298,105.05310314603264,103.82393542632896,95.43240794707032,81.66822801555841,40.86697509794363,9.437107620853697,3.532159823788401,0.0,0.0,0.0,0.0,0.0,0.0,0.0,0.0,0.0,0.0,0.0,4.5152767361453146,23.721090251329993,51.58512207669443,51.23342693815791,64.38573880239355,100.46966001624048,104.1558052790638,101.49785908535188,93.62233219545188,80.60689627702504,62.77989065245806,38.32227745463305,12.121940161063762,0.0,0.0,0.0,0.0,0.0,0.0,0.0,0.0,0.0,0.0,0.0,4.968814096265768,27.836059161836054,54.87286056868139,75.4623704011198,90.65369933109456,99.92650150112615,46.06473050833008,98.66148531942494,58.05115261987281,67.95700603927017,51.8966234851125,36.17462868587104,12.596660703273674,0.0,0.0,0.0,0.0,0.0,0.0,0.0,0.0,0.0,0.0,0.0,5.039967861745744,26.163674093799074,51.17286476372267,71.4009026043525,85.64659255951324,94.76785350382796,74.32716910453088,96.11977504794748,78.93505436750317,75.88739193919675,57.595714204949466,35.04866108403907,6.755534031734313,0.0,0.0,0.0,0.0,0.0,0.0,0.0,0.0,0.0,0.0,0.0,4.473181951223955,25.393203740109417,49.84945904164663,70.05278316983876,85.28077529958375,94.09759589617688,73.35057009435533,43.71855730229379,88.10818695001132,75.59978950544371,57.70679012129034,33.63590578622672,0.0,0.0,0.0,0.0,0.0,0.0,0.0,0.0,0.0,0.0,0.0,0.0,4.8365549978354325,26.10311191936383,28.96148360515292,37.7984010668053,88.89766785172998,98.6837548185446,102.0931608179172,100.31513141869048,92.60635419293054,79.1257030063083,60.15942239628904,31.074913387462725,9.584575157707231,0.0,0.0,0.0,0.0,0.0,0.0,0.0,0.0,0.0,0.0,0.0,3.2947995526834446,17.08532267217839,18.070883797853316,51.37980815798122,72.34735631693918,32.517813982863906,17.864755141367432,39.44580084314702,71.88811579241003,29.224915484983363,2.346987943808962,13.66179455141285,5.249627048579869,0.0,0.0,0.0,0.0,0.0,0.0,0.0,0.0,0.0,0.0,0.0,4.719232758570739,26.568870346074355,53.88811418077914,74.89802870391603,89.96415959615693,99.36677665130088,102.79682267424776,99.94931415876096,70.92047889773389,79.71095630634399,60.83755580240927,36.456256375957814,10.663287968724266,0.0,0.0,0.0,0.0,0.0,0.0,0.0,0.0,0.0,0.0,0.0,4.61223053109322,25.947768584041135,51.82601287814763,71.94270322317901,36.19472555093027,73.10451928700854,88.71978343803003,86.89096871764013,64.90092465397946,70.28172448395944,55.222926231672574,26.87874227894707,7.187345051250194,0.0,0.0,0.0,0.0,0.0,0.0,0.0,0.0,0.0,0.0,0.0,4.35423023641392,25.520574411903727,22.752910198138725,12.565972247169714,51.14217630761872,86.7282927423634,80.49256140959348,81.7228154463274,72.32209944598638,60.963025419400665,10.154348440062147,12.288418245946298,6.88480575833152,0.0,0.0,0.0,0.0,0.0,0.0,0.0,0.0,0.0,0.0,0.0,4.145657366610021,25.718012532147775,52.39008299609385,73.68895784927155,89.52039908930855,99.21442068781133,85.0871392889455,66.57059392944088,78.28869573451713,82.69425445060938,63.49169988651537,36.0081506009885,9.614720455296077,0.0,0.0,0.0,0.0,0.0,0.0,0.0,0.0,0.0,0.0,0.0,4.19264057816741,25.3375299923102,52.22007438086307,73.4744102358014,20.64518358023762,72.38564899225474,103.51270559716843,40.07423524513428,68.28996220903524,56.48386872451046,57.59788683900992,30.240893487504692,8.81817849288093,0.0,0.0,0.0,0.0,0.0,0.0,0.0,0.0,0.0,0.0,0.0,4.095143624704391,25.405696385957047,52.69995492896658,74.5476914616673,50.248680550255656,18.992352218744756,33.332551755535384,32.86516385327951,55.80736479393557,60.94727382246236,57.320875996301616,35.25913500864587,10.835469218015502,0.0,0.0,0.0,0.0,0.0,0.0,0.0,0.0,0.0,0.0,0.0,2.8798264471361064,7.648215051324692,18.69497293171966,64.34011348712393,32.1742662220541,69.83117449567212,71.45467529734881,77.64342341856133,11.688499666002537,14.578646124925816,7.449147455535294,14.303536337020413,5.7577518394693135,0.0,0.0,0.0,0.0,0.0,0.0,0.0,0.0,0.0,0.0,0.0,3.733671632895812,22.01448619684081,24.727562979836826,6.139592275594677,70.94383471388379,53.972032171364305,90.08528394502744,92.10800625531316,66.69307617459916,64.46503994560022,51.88657505258288,33.97592301668829,10.435161392376251,0.0,0.0,0.0,0.0,0.0,0.0,0.0,0.0,0.0,0.0,0.0,1.914362186520409,12.43941631314808,43.54719079077522,39.744266447202335,61.91002229050248,78.08989971798529,32.07649768933353,28.740961248016504,36.85547788456684,66.02471962175099,62.17942891399919,36.34436572184426,10.859368192680533,0.0,0.0,0.0,0.0,0.0,0.0,0.0,0.0,0.0,0.0,0.0,3.4267870718562237,25.1403634513237,53.00358053891547,74.19599632313077,88.995164805193,76.52125792633515,101.7012719492622,69.28720124278513,52.19373119288002,61.85978012785441,60.143399220093166,35.42235414243772,9.455846589625136,0.0,0.0,0.0,0.0,0.0,0.0,0.0,0.0,0.0,0.0,0.0,3.422713382992866,25.202826680561845,53.13366700328535,74.9431108606705,90.5944950529471,75.49197254019352,74.79700122010476,46.445756206682766,31.612368738168342,37.92196962899379,51.72444223582126,35.04485897443327,10.312679147217972,0.0,0.0,0.0,0.0,0.0,0.0,0.0,0.0,0.0,0.0,0.0,3.458833424247968,24.56135647421184,51.75404437489499,73.56674718337085,90.09587553607214,99.40316827181354,70.72820078338341,100.6106
...